Version 4
SHEET 1 1412 680
WIRE 896 -464 528 -464
WIRE 736 -416 608 -416
WIRE 1152 -416 736 -416
WIRE 1312 -416 1152 -416
WIRE 608 -336 608 -416
WIRE 896 -336 896 -464
WIRE 1312 -304 1312 -416
WIRE 736 -256 736 -416
WIRE 832 -256 736 -256
WIRE 896 -240 896 -256
WIRE 1040 -240 896 -240
WIRE 896 -224 896 -240
WIRE 64 -208 -352 -208
WIRE 1152 -208 1152 -416
WIRE 1264 -208 1152 -208
WIRE 736 -192 736 -256
WIRE 368 -144 -144 -144
WIRE 528 -144 528 -464
WIRE 528 -144 368 -144
WIRE 1120 -128 1008 -128
WIRE 1152 -128 1152 -208
WIRE 1312 -112 1312 -224
WIRE 1312 -112 1184 -112
WIRE 368 -96 368 -144
WIRE 528 -96 528 -144
WIRE 736 -96 736 -112
WIRE 1008 -96 1008 -128
WIRE 1008 -96 736 -96
WIRE 1040 -96 1040 -240
WIRE 1120 -96 1040 -96
WIRE 64 -80 64 -208
WIRE 64 -80 -64 -80
WIRE 176 -80 64 -80
WIRE 736 -80 736 -96
WIRE 1152 -64 1152 -96
WIRE 1152 -64 1088 -64
WIRE -64 -48 -64 -80
WIRE 176 -48 176 -80
WIRE 832 -48 832 -256
WIRE 896 -48 832 -48
WIRE 1264 -48 1264 -208
WIRE 1264 -48 1152 -48
WIRE 1088 -32 1088 -64
WIRE -352 16 -352 -208
WIRE -144 64 -144 -144
WIRE -64 64 -64 16
WIRE -64 64 -144 64
WIRE 176 64 176 16
WIRE 368 64 368 -32
WIRE 368 64 176 64
WIRE 528 64 528 -32
WIRE 528 64 368 64
WIRE 896 64 896 32
WIRE 1008 64 896 64
WIRE 896 80 896 64
WIRE 1040 96 1040 -96
WIRE 1120 96 1040 96
WIRE 1152 96 1152 -48
WIRE -64 112 -64 64
WIRE 176 112 176 64
WIRE 1312 112 1312 -112
WIRE 1312 112 1184 112
WIRE 528 128 528 64
WIRE 1008 128 1008 64
WIRE 1120 128 1008 128
WIRE 1152 192 1152 128
WIRE -64 224 -64 176
WIRE 64 224 -64 224
WIRE 176 224 176 176
WIRE 176 224 64 224
WIRE -352 352 -352 96
WIRE 64 352 64 224
WIRE 64 352 -352 352
FLAG 896 -144 0
FLAG 736 0 0
FLAG 896 160 0
FLAG 608 -256 0
FLAG 1088 -32 0
FLAG 1152 192 0
FLAG 528 128 0
SYMBOL diode -80 -48 R0
SYMATTR InstName D1
SYMATTR Value 1N4148
SYMBOL diode 160 112 R0
SYMATTR InstName D2
SYMATTR Value 1N4148
SYMBOL diode 192 16 R180
WINDOW 0 24 64 Left 2
WINDOW 3 24 0 Left 2
SYMATTR InstName D3
SYMATTR Value 1N4148
SYMBOL diode -48 176 R180
WINDOW 0 24 64 Left 2
WINDOW 3 24 0 Left 2
SYMATTR InstName D4
SYMATTR Value 1N4148
SYMBOL cap 352 -96 R0
SYMATTR InstName C1
SYMATTR Value 1000湩
SYMBOL cap 512 -96 R0
SYMATTR InstName C2
SYMATTR Value 0.33湩
SYMBOL Comparators\\LM393 1152 -96 R0
SYMATTR InstName U1
SYMATTR SpiceModel LM2903B
SYMATTR Value LM2903B
SYMATTR Value2 LM2903B
SYMATTR SpiceLine LM2903B
SYMATTR SpiceLine2 LM2903B
SYMBOL Comparators\\LM393 1152 128 R0
SYMATTR InstName U2
SYMATTR SpiceModel LM2903B
SYMATTR Value LM2903B
SYMATTR SpiceLine LM2903B
SYMBOL res 880 -352 R0
SYMATTR InstName R1
SYMATTR Value 82K
SYMBOL res 880 -240 R0
SYMATTR InstName R2
SYMATTR Value 10K
SYMBOL res 720 -208 R0
SYMATTR InstName R3
SYMATTR Value 8.2K
SYMBOL res 720 -96 R0
SYMATTR InstName R4
SYMATTR Value 4.7K
SYMBOL res 880 -64 R0
SYMATTR InstName R5
SYMATTR Value 9.1K
SYMBOL res 880 64 R0
SYMATTR InstName R6
SYMATTR Value 3.3K
SYMBOL res 1296 -320 R0
SYMATTR InstName R7
SYMATTR Value 10K
SYMBOL voltage 608 -352 R0
WINDOW 123 0 0 Left 0
WINDOW 39 0 0 Left 0
SYMATTR InstName V2
SYMATTR Value 5V
SYMBOL bv -352 0 R0
SYMATTR InstName B1
SYMATTR Value V = 80*time*sin(2*pi*50*time)
TEXT -384 360 Left 2 !.tran 0.3
